48
XYZ file generated by Avogadro.
Na     0.0000000000    0.0000000000   -2.0000000000
Na    -2.1410000000   -2.1410000000    0.1410000000
Na    -2.1410000000    2.1410000000    0.1410000000
Na     2.1410000000   -2.1410000000    0.1410000000
Na     2.1410000000    2.1410000000    0.1410000000
Na    -4.2820000000   -4.2820000000    2.2820000000
Na    -4.2820000000    0.0000000000    2.2820000000
Na    -4.2820000000    4.2820000000    2.2820000000
Na     0.0000000000   -4.2820000000    2.2820000000
Na     0.0000000000    0.0000000000    2.2820000000
Na     0.0000000000    4.2820000000    2.2820000000
Na     4.2820000000   -4.2820000000    2.2820000000
Na     4.2820000000    0.0000000000    2.2820000000
Na     4.2820000000    4.2820000000    2.2820000000
Na     0.0000000000    4.2820000000  -14.2820000000
Na    -4.2820000000   -4.2820000000  -14.2820000000
Na    -4.2820000000   -4.2820000000  -10.0000000000
Na     0.0000000000    0.0000000000  -10.0000000000
Na     0.0000000000    4.2820000000  -10.0000000000
Na     6.4230000000    6.4230000000  -12.1410000000
Na    -2.1410000000    2.1410000000  -12.1410000000
Na    -4.2820000000    0.0000000000  -14.2820000000
Na     6.4230000000    2.1410000000  -12.1410000000
Na     2.1410000000   -6.4230000000  -12.1410000000
Na    -2.1410000000   -6.4230000000  -12.1410000000
Na     6.4230000000   -2.1410000000  -12.1410000000
Na     2.1410000000   -2.1410000000  -12.1410000000
Na     2.1410000000    2.1410000000  -12.1410000000
Na     2.1410000000    6.4230000000  -12.1410000000
Na    -2.1410000000   -2.1410000000  -12.1410000000
Na     4.2820000000   -4.2820000000  -10.0000000000
Na     0.0000000000    0.0000000000  -14.2820000000
Na     4.2820000000    0.0000000000  -10.0000000000
Na     0.0000000000   -4.2820000000  -10.0000000000
Na     4.2820000000    4.2820000000  -14.2820000000
Na    -4.2820000000    0.0000000000  -10.0000000000
Na     4.2820000000    4.2820000000  -10.0000000000
Na     0.0000000000   -4.2820000000  -14.2820000000
Na    -2.1410000000    6.4230000000  -12.1410000000
Na    -4.2820000000    4.2820000000  -10.0000000000
Na    -6.4230000000   -6.4230000000  -12.1410000000
Na    -6.4230000000   -2.1410000000  -12.1410000000
Na    -4.2820000000    4.2820000000  -14.2820000000
Na     6.4230000000   -6.4230000000  -12.1410000000
Na    -6.4230000000    2.1410000000  -12.1410000000
Na     4.2820000000   -4.2820000000  -14.2820000000
Na    -6.4230000000    6.4230000000  -12.1410000000
Na     4.2820000000    0.0000000000  -14.2820000000
