89
XYZ file generated by Avogadro.
Na     0.0000000000    0.0000000000   -4.0000000000
Na    -2.1410000000   -2.1410000000   -1.8590000000
Na    -2.1410000000    2.1410000000   -1.8590000000
Na     2.1410000000   -2.1410000000   -1.8590000000
Na     2.1410000000    2.1410000000   -1.8590000000
Na    -4.2820000000   -4.2820000000    0.2820000000
Na    -4.2820000000    0.0000000000    0.2820000000
Na    -4.2820000000    4.2820000000    0.2820000000
Na     0.0000000000   -4.2820000000    0.2820000000
Na     0.0000000000    0.0000000000    0.2820000000
Na     0.0000000000    4.2820000000    0.2820000000
Na     4.2820000000   -4.2820000000    0.2820000000
Na     4.2820000000    0.0000000000    0.2820000000
Na     4.2820000000    4.2820000000    0.2820000000
Na    -6.4230000000   -6.4230000000    2.4230000000
Na    -6.4230000000   -2.1410000000    2.4230000000
Na    -6.4230000000    2.1410000000    2.4230000000
Na    -6.4230000000    6.4230000000    2.4230000000
Na    -2.1410000000   -6.4230000000    2.4230000000
Na    -2.1410000000   -2.1410000000    2.4230000000
Na    -2.1410000000    2.1410000000    2.4230000000
Na    -2.1410000000    6.4230000000    2.4230000000
Na     2.1410000000   -6.4230000000    2.4230000000
Na     2.1410000000   -2.1410000000    2.4230000000
Na     2.1410000000    2.1410000000    2.4230000000
Na     2.1410000000    6.4230000000    2.4230000000
Na     6.4230000000   -6.4230000000    2.4230000000
Na     6.4230000000   -2.1410000000    2.4230000000
Na     6.4230000000    2.1410000000    2.4230000000
Na     6.4230000000    6.4230000000    2.4230000000
Na    -8.5640000000   -8.5640000000    4.5640000000
Na    -8.5640000000   -4.2820000000    4.5640000000
Na    -8.5640000000    0.0000000000    4.5640000000
Na    -8.5640000000    4.2820000000    4.5640000000
Na    -8.5640000000    8.5640000000    4.5640000000
Na    -4.2820000000   -8.5640000000    4.5640000000
Na    -4.2820000000   -4.2820000000    4.5640000000
Na    -4.2820000000    0.0000000000    4.5640000000
Na    -4.2820000000    4.2820000000    4.5640000000
Na    -4.2820000000    8.5640000000    4.5640000000
Na     0.0000000000   -8.5640000000    4.5640000000
Na     0.0000000000   -4.2820000000    4.5640000000
Na     0.0000000000    0.0000000000    4.5640000000
Na     0.0000000000    4.2820000000    4.5640000000
Na     0.0000000000    8.5640000000    4.5640000000
Na     4.2820000000   -8.5640000000    4.5640000000
Na     4.2820000000   -4.2820000000    4.5640000000
Na     4.2820000000    0.0000000000    4.5640000000
Na     4.2820000000    4.2820000000    4.5640000000
Na     4.2820000000    8.5640000000    4.5640000000
Na     8.5640000000   -8.5640000000    4.5640000000
Na     8.5640000000   -4.2820000000    4.5640000000
Na     8.5640000000    0.0000000000    4.5640000000
Na     8.5640000000    4.2820000000    4.5640000000
Na     8.5640000000    8.5640000000    4.5640000000
Na    -4.2820000000    4.2820000000  -10.0000000000
Na     2.1410000000   -2.1410000000  -12.1410000000
Na     6.4230000000   -6.4230000000  -12.1410000000
Na    -4.2820000000   -4.2820000000  -10.0000000000
Na     0.0000000000   -4.2820000000  -14.2820000000
Na     0.0000000000    0.0000000000  -14.2820000000
Na     0.0000000000    4.2820000000  -14.2820000000
Na     2.1410000000    2.1410000000  -12.1410000000
Na     6.4230000000   -2.1410000000  -12.1410000000
Na     6.4230000000    2.1410000000  -12.1410000000
Na     4.2820000000   -4.2820000000  -14.2820000000
Na     4.2820000000    4.2820000000  -10.0000000000
Na    -2.1410000000   -2.1410000000  -12.1410000000
Na     2.1410000000    6.4230000000  -12.1410000000
Na     6.4230000000    6.4230000000  -12.1410000000
Na     0.0000000000   -4.2820000000  -10.0000000000
Na    -4.2820000000    0.0000000000  -10.0000000000
Na    -4.2820000000    0.0000000000  -14.2820000000
Na     4.2820000000   -4.2820000000  -10.0000000000
Na    -2.1410000000    2.1410000000  -12.1410000000
Na    -4.2820000000   -4.2820000000  -14.2820000000
Na    -4.2820000000    4.2820000000  -14.2820000000
Na     2.1410000000   -6.4230000000  -12.1410000000
Na    -2.1410000000    6.4230000000  -12.1410000000
Na    -6.4230000000   -6.4230000000  -12.1410000000
Na    -6.4230000000   -2.1410000000  -12.1410000000
Na    -6.4230000000    2.1410000000  -12.1410000000
Na     4.2820000000    0.0000000000  -10.0000000000
Na    -6.4230000000    6.4230000000  -12.1410000000
Na     4.2820000000    4.2820000000  -14.2820000000
Na     0.0000000000    0.0000000000  -10.0000000000
Na     4.2820000000    0.0000000000  -14.2820000000
Na     0.0000000000    4.2820000000  -10.0000000000
Na    -2.1410000000   -6.4230000000  -12.1410000000
