125
XYZ file generated by Avogadro.
Na     0.0000000000    0.0000000000   -1.0000000000
Na    -2.1410000000   -2.1410000000    1.1410000000
Na    -2.1410000000    2.1410000000    1.1410000000
Na     2.1410000000   -2.1410000000    1.1410000000
Na     2.1410000000    2.1410000000    1.1410000000
Na    -4.2820000000   -4.2820000000    3.2820000000
Na    -4.2820000000    0.0000000000    3.2820000000
Na    -4.2820000000    4.2820000000    3.2820000000
Na     0.0000000000   -4.2820000000    3.2820000000
Na     0.0000000000    0.0000000000    3.2820000000
Na     0.0000000000    4.2820000000    3.2820000000
Na     4.2820000000   -4.2820000000    3.2820000000
Na     4.2820000000    0.0000000000    3.2820000000
Na     4.2820000000    4.2820000000    3.2820000000
Na    -6.4230000000   -6.4230000000    5.4230000000
Na    -6.4230000000   -2.1410000000    5.4230000000
Na    -6.4230000000    2.1410000000    5.4230000000
Na    -6.4230000000    6.4230000000    5.4230000000
Na    -2.1410000000   -6.4230000000    5.4230000000
Na    -2.1410000000   -2.1410000000    5.4230000000
Na    -2.1410000000    2.1410000000    5.4230000000
Na    -2.1410000000    6.4230000000    5.4230000000
Na     2.1410000000   -6.4230000000    5.4230000000
Na     2.1410000000   -2.1410000000    5.4230000000
Na     2.1410000000    2.1410000000    5.4230000000
Na     2.1410000000    6.4230000000    5.4230000000
Na     6.4230000000   -6.4230000000    5.4230000000
Na     6.4230000000   -2.1410000000    5.4230000000
Na     6.4230000000    2.1410000000    5.4230000000
Na     6.4230000000    6.4230000000    5.4230000000
Na    -8.5640000000   -8.5640000000    7.5640000000
Na    -8.5640000000   -4.2820000000    7.5640000000
Na    -8.5640000000    0.0000000000    7.5640000000
Na    -8.5640000000    4.2820000000    7.5640000000
Na    -8.5640000000    8.5640000000    7.5640000000
Na    -4.2820000000   -8.5640000000    7.5640000000
Na    -4.2820000000   -4.2820000000    7.5640000000
Na    -4.2820000000    0.0000000000    7.5640000000
Na    -4.2820000000    4.2820000000    7.5640000000
Na    -4.2820000000    8.5640000000    7.5640000000
Na     0.0000000000   -8.5640000000    7.5640000000
Na     0.0000000000   -4.2820000000    7.5640000000
Na     0.0000000000    0.0000000000    7.5640000000
Na     0.0000000000    4.2820000000    7.5640000000
Na     0.0000000000    8.5640000000    7.5640000000
Na     4.2820000000   -8.5640000000    7.5640000000
Na     4.2820000000   -4.2820000000    7.5640000000
Na     4.2820000000    0.0000000000    7.5640000000
Na     4.2820000000    4.2820000000    7.5640000000
Na     4.2820000000    8.5640000000    7.5640000000
Na     8.5640000000   -8.5640000000    7.5640000000
Na     8.5640000000   -4.2820000000    7.5640000000
Na     8.5640000000    0.0000000000    7.5640000000
Na     8.5640000000    4.2820000000    7.5640000000
Na     8.5640000000    8.5640000000    7.5640000000
Na   -10.7050000000  -10.7050000000    9.7050000000
Na   -10.7050000000   -6.4230000000    9.7050000000
Na   -10.7050000000   -2.1410000000    9.7050000000
Na   -10.7050000000    2.1410000000    9.7050000000
Na   -10.7050000000    6.4230000000    9.7050000000
Na   -10.7050000000   10.7050000000    9.7050000000
Na    -6.4230000000  -10.7050000000    9.7050000000
Na    -6.4230000000   -6.4230000000    9.7050000000
Na    -6.4230000000   -2.1410000000    9.7050000000
Na    -6.4230000000    2.1410000000    9.7050000000
Na    -6.4230000000    6.4230000000    9.7050000000
Na    -6.4230000000   10.7050000000    9.7050000000
Na    -2.1410000000  -10.7050000000    9.7050000000
Na    -2.1410000000   -6.4230000000    9.7050000000
Na    -2.1410000000   -2.1410000000    9.7050000000
Na    -2.1410000000    2.1410000000    9.7050000000
Na    -2.1410000000    6.4230000000    9.7050000000
Na    -2.1410000000   10.7050000000    9.7050000000
Na     2.1410000000  -10.7050000000    9.7050000000
Na     2.1410000000   -6.4230000000    9.7050000000
Na     2.1410000000   -2.1410000000    9.7050000000
Na     2.1410000000    2.1410000000    9.7050000000
Na     2.1410000000    6.4230000000    9.7050000000
Na     2.1410000000   10.7050000000    9.7050000000
Na     6.4230000000  -10.7050000000    9.7050000000
Na     6.4230000000   -6.4230000000    9.7050000000
Na     6.4230000000   -2.1410000000    9.7050000000
Na     6.4230000000    2.1410000000    9.7050000000
Na     6.4230000000    6.4230000000    9.7050000000
Na     6.4230000000   10.7050000000    9.7050000000
Na    10.7050000000  -10.7050000000    9.7050000000
Na    10.7050000000   -6.4230000000    9.7050000000
Na    10.7050000000   -2.1410000000    9.7050000000
Na    10.7050000000    2.1410000000    9.7050000000
Na    10.7050000000    6.4230000000    9.7050000000
Na    10.7050000000   10.7050000000    9.7050000000
Na    -4.2820000000    4.2820000000  -10.0000000000
Na     0.0000000000    4.2820000000  -14.2820000000
Na     4.2820000000    4.2820000000  -14.2820000000
Na    -4.2820000000    0.0000000000  -14.2820000000
Na     4.2820000000   -4.2820000000  -14.2820000000
Na     6.4230000000    2.1410000000  -12.1410000000
Na     6.4230000000    6.4230000000  -12.1410000000
Na    -6.4230000000    6.4230000000  -12.1410000000
Na    -6.4230000000   -2.1410000000  -12.1410000000
Na     0.0000000000   -4.2820000000  -10.0000000000
Na     0.0000000000    0.0000000000  -10.0000000000
Na     2.1410000000   -6.4230000000  -12.1410000000
Na    -4.2820000000    4.2820000000  -14.2820000000
Na    -2.1410000000   -6.4230000000  -12.1410000000
Na    -2.1410000000   -2.1410000000  -12.1410000000
Na     2.1410000000   -2.1410000000  -12.1410000000
Na     0.0000000000   -4.2820000000  -14.2820000000
Na     2.1410000000    2.1410000000  -12.1410000000
Na    -4.2820000000   -4.2820000000  -14.2820000000
Na    -6.4230000000    2.1410000000  -12.1410000000
Na     4.2820000000   -4.2820000000  -10.0000000000
Na     0.0000000000    4.2820000000  -10.0000000000
Na     2.1410000000    6.4230000000  -12.1410000000
Na    -2.1410000000    2.1410000000  -12.1410000000
Na    -2.1410000000    6.4230000000  -12.1410000000
Na     6.4230000000   -6.4230000000  -12.1410000000
Na     6.4230000000   -2.1410000000  -12.1410000000
Na    -6.4230000000   -6.4230000000  -12.1410000000
Na    -4.2820000000   -4.2820000000  -10.0000000000
Na    -4.2820000000    0.0000000000  -10.0000000000
Na     0.0000000000    0.0000000000  -14.2820000000
Na     4.2820000000    0.0000000000  -10.0000000000
Na     4.2820000000    4.2820000000  -10.0000000000
Na     4.2820000000    0.0000000000  -14.2820000000
