9
XYZ file generated by Avogadro.
Na    -6.3822331785   -0.2653518360    3.6765901886
Na    -9.0667343426    3.9552131789   -1.1043977391
Na    -4.8228725764   -0.3701064511   -3.2697783033
Na    -2.7677418412   -5.0358222942    1.0305594750
Na    -9.9161643982   -1.8157509565   -3.1508431435
Na    -8.1653127670   -4.6906137466   -1.2498328686
Na   -11.4592103514   -0.9363777720    0.1198030488
Na    -9.5338211060   -3.7271914482    1.8575205803
Na    -1.2117061615    3.8237006664    0.7014838457
