9
XYZ file generated by Avogadro.
Na         7.8580975728        8.1424097544       11.2942012760
Na         4.9902590976       12.3656074564        6.7854672162
Na         9.3147521506        8.0888108758        4.6574666431
Na        11.1766018509        3.6351770467        8.7766543851
Na         4.6533723534        6.8090374105        4.7971170994
Na         6.2811788547        4.4169409890        6.5502618363
Na         3.2852233835        7.5793916239        7.8671676381
Na         5.3363025289        4.4149294057        9.6116885870
Na        12.7954696500       12.3465406512        8.4417307362