9
Generated from Jmol VRML
Na    -2.1673902816    0.0000937237   -2.1812721214
Na    -2.1725040312   -2.1740813808   -0.0066772530
Na    -2.1725040312    2.1739511257   -0.0066772530
Na    -2.1775928473   -0.0002321516    2.1692045784
Na     0.0000000000    0.0000000000    0.0000000000
Na    -4.7534671040   -1.5432639695   -1.5558510262
Na    -4.7527005992    1.5459729801   -1.5583823597
Na    -4.7597306964    1.5437409090    1.5312482740
Na    -4.7591370377   -1.5459102733    1.5336352032
